   37
 
N      11.411245   11.411089   10.001053
N      11.411115    8.588786   10.000538
N       8.588792    8.588882   10.001449
N       8.588890   11.411195   10.001260
C      11.236237   12.794888   10.000588
C      12.510040   13.486509   10.001058
C      13.485964   12.510821   10.001638
C      12.795110   11.236527   10.001563
C      12.794917    8.763775   10.001165
C      13.486543    7.489963   10.001188
C      12.510830    6.514048   10.000227
C      11.236543    7.204923    9.999821
C      10.000141    6.547065    9.998922
C       8.763772    7.205083    9.999734
C       7.489957    6.513483    9.999378
C       6.514041    7.489187   10.001627
C       7.204933    8.763456   10.002669
C       6.547031    9.999829   10.003271
C       7.205096   11.236208   10.002043
C       6.513465   12.510004   10.000118
C       7.489167   13.485928    9.998207
C       8.763460   12.795066    9.999433
C       9.999869   13.452924    9.999312
H       5.416435   12.629114    9.999998
H       5.417239    7.368797   10.002195
C      13.452973   10.000125   10.001753
H      14.558555   10.000512   10.002128
H      10.000527    5.441488    9.997774
H       5.441460    9.999474   10.004056
H       9.999475   14.558515    9.998239
H      12.631180    5.417235   10.000067
H      14.583568    7.370879   10.001778
H       7.370892    5.416457    9.997467
H       7.368822   14.582762    9.995931
H      12.629119   14.583545   10.000992
H      14.582768   12.631174   10.001935
Fe     10.000003   10.000008   10.001106
